scripts/data/pwf/franks/118IEEE.pwf
TITU
IEEE 118 Bus Modified
DOPC
(Op) E (Op) E (Op) E (Op) E (Op) E (Op) E (Op) E (Op) E (Op) E (Op) E
QLIM D
99999
(Mn) ( Val) (Mn) ( Val) (Mn) ( Val) (Mn) ( Val) (Mn) ( Val) (Mn) ( Val)
DCTE
BASE 100.  
99999
DBAR
(Num)OETGb(   nome   )Gl( V)( A)( Pg)( Qg)( Qn)( Qm)(Bc  )( Pl)( Ql)( Sh)Are(Vf)M(1)(2)(3)(4)(5)(6)(7)(8)(9)(10
    1 L1 ARiversde     A 95511.      -3.1 -5.  15.        51.  27.         11000
    2 L  APokagon      A 97111.5                          20.  9.          11000
    3 L  AHickryCk     A 96811.9                          39.  10.         11000
    4 L1 ANwCarlsl     A 99815.6     -15. -300.300.       39.  12.         11000
    5 L  AOlive        A100216.                                     -40.   11000
    6 L1 AKankakee     A 99013.3     15.93-13. 50.        52.  22.         11000
    7 L  AJacksnRd     A 98912.9                          19.  2.          11000
    8 L1 AOlive        A101521.      62.76-300.300.       28.  0.          11000
    9 L  ABequine      A104328.3                                           11000
   10 L1 ABreed        A105035.9450. -51. -147.200.                        11000
   11 L  ASouthBnd     A 98513.                           70.  23.         11000
   12 L1 ATwinBrch     A 99012.585.  91.27-35. 120.       47.  10.         11000
   13 L  AConcord      A 96811.6                          34.  16.         11000
   14 L  AGoshenJt     A 98411.8                          14.  1.          11000
   15 L1 AFtWayne      A 97011.5     3.06 -10. 30.        90.  30.         11000
   16 L  AN. E.        A 98412.2                          25.  10.         11000
   17 L  ASorenson     A 99514.                           11.  3.          11000
   18 L1 AMcKinley     A 97311.8     25.53-16. 50.        60.  34.         11000
   19 L1 ALincoln      A 96311.3     -8.  -8.  24.        45.  25.         11000
   20 L  AAdams        A 95812.2                          18.  3.          11000
   21 L  AJay          A 95913.8                          14.  8.          11000
   22 L  ARandolph     A 97016.3                          10.  5.          11000
   23 L  ACollCrnr     A100021.3                          7.   3.          11000
   24 L1 ATrenton      A 99221.1     -15.3-300.300.       13.  0.          11000
   25 L1 ATannrsCk     A105028.2220. 49.8 -47. 140.                        11000
   26 L1 ATannrsCk     A101530. 314. 9.905-10001000.                       11000
   27 L1 AMadison      A 96815.6     2.831-300.300.       71.  13.         11000
   28 L  AMullin       A 96213.9                          17.  7.          11000
   29 L  AGrant        A 96312.9                          24.  4.          11000
   30 L  ASorenson     A 98619.                                            11000
   31 L1 ADeerCrk      A 96713. 7.   31.98-300.300.       43.  27.         11000
   32 L1 ADelaware     A 96415.1     -14. -14. 42.        59.  23.         11000
   33 L  AHaviland     A 97210.9                          23.  9.          11000
   34 L1 ARockhill     A 98611.5     -8.  -8.  24.        59.  26.  14.    11000
   35 L  AWestLima     A 98111.1                          33.  9.          11000
   36 L1 ASterling     A 98011.1     -1.25-8.  24.        31.  17.         11000
   37 L  AEastLima     A 99212.                                     -25.   11000
   38 L  AEastLima     A 96217.1                                           11000
   39 L  ANwLibrty     A 9708.6                           27.  11.         11000
   40 L1 AWest End     A 9707.52     26.89-300.300.       66.  23.         11000
   41 L  AS.Tiffin     A 9677.08                          37.  10.         11000
   42 L1 AHoward       A 9858.67     41.  -300.300.       96.  23.         11000
   43 L  AS.Kenton     A 97811.5                          18.  7.          11000
   44 L  AWMVernon     A 98513.9                          16.  8.   10.    11000
   45 L  AN.Newark     A 98715.8                          53.  22.  10.    11000
   46 L1 AW.Lancst     A100518.619.  -5.23-100.100.       28.  10.  10.    11000
   47 L  ACrooksvl     A101720.8                          34.  0.          11000
   48 L  AZanesvll     A102120.                           20.  11.  15.    11000
   49 L1 APhilo        A102521. 204. 115.6-85. 210.       87.  30.         11000
   50 L  AWCambrdg     A100119.                           17.  4.          11000
   51 L  ANewcmrst     A 96716.4                          17.  8.          11000
   52 L  ASCoshoct     A 95715.4                          18.  5.          11000
   53 L  AWooster      A 94614.4                          23.  11.         11000
   54 L1 ATorrey       A 95515.448.  3.902-300.300.       113. 32.         11000
   55 L1 AWagenhls     A 95215.1     4.664-8.  23.        63.  22.         11000
   56 L1 ASunnysde     A 95415.3     -2.29-8.  15.        84.  18.         11000
   57 L  AWNwPhil1     A 97116.5                          12.  3.          11000
   58 L  AWNwPhil2     A 95915.6                          12.  3.          11000
   59 L1 ATidd         A 98519.5155. 76.83-60. 180.       277. 113.        11000
   60 L  ASWKammer     A 99323.2                          78.  3.          11000
   61 L1 AW.Kammer     A 99524.1160. -40.4-100.300.                        11000
   62 L1 ANatrium      A 99823.5     1.259-20. 20.        77.  14.         11000
   63 L  ATidd         A 96922.8                                           11000
   64 L  AKammer       A 98424.6                                           11000
   65 L1 AMuskngum     A100527.7391. 80.81-67. 200.                        11000
   66 L1 AMuskngum     A105027.6392. -1.95-67. 200.       39.  18.         11000
   67 L  ASummerfl     A102024.9                          28.  7.          11000
   68 L  ASporn        A100327.6                                           11000
   69 L2 ASporn        A103530. 513.4-82.4-300.300.                        11000
   70 L1 APortsmth     A 98422.6     9.664-10. 32.        66.  20.         11000
   71 L  ANPortsmt     A 98722.2                                           11000
   72 L1 AHillsbro     A 98021.1     -11.1-100.100.       12.  0.          11000
   73 L1 ASargents     A 99122.      9.651-100.100.       6.   0.          11000
   74 L1 ABellefnt     A 95821.7     -5.63-6.  9.         68.  27.  12.    11000
   75 L  ASthPoint     A 96722.9                          47.  11.         11000
   76 L1 ADarrah       A 94321.8     5.269-8.  23.        68.  36.         11000
   77 L1 ATurner       A100626.8     11.94-20. 70.        61.  28.         11000
   78 L  AChemical     A100326.5                          71.  26.         11000
   79 L  ACapitlHl     A100926.8                          39.  32.  20.    11000
   80 L1 ACabinCrk     A104029. 477. 105. -165.280.       130. 26.         11000
   81 L  AKanawha      A 99728.2                                           11000
   82 L  ALogan        A 98927.3                          54.  27.  20.    11000
   83 L  ASprigg       A 98528.5                          20.  10.  10.    11000
   84 L  ABetsyLne     A 98031.                           11.  7.          11000
   85 L1 ABeaverCk     A 98532.6     -5.77-8.  23.        24.  15.         11000
   86 L  AHazard       A 98731.2                          21.  10.         11000
   87 L1 APinevlle     A101531.44.   11.02-100.1000.                       11000
   88 L  AFremont      A 98735.7                          48.  10.         11000
   89 L1 AClinchRv     A100539.7607. -11.8-210.300.                        11000
   90 L1 AHolston      A 98533.3     59.3 -300.300.       163. 42.         11000
   91 L1 AHolstonT     A 98033.4     -14.8-100.100.       10.  0.          11000
   92 L1 ASaltvlle     A 99233.9     -3.  -3.  9.         65.  10.         11000
   93 L  ATazewell     A 98730.8                          12.  7.          11000
   94 L  ASwitchbk     A 99128.7                          30.  16.         11000
   95 L  ACaldwell     A 98127.7                          42.  31.         11000
   96 L  ABaileysv     A 99327.6                          38.  15.         11000
   97 L  ASundial      A101127.9                          15.  9.          11000
   98 L  ABradley      A102427.4                          34.  8.          11000
   99 L1 AHinton       A101027.1     -17.5-100.100.       42.  0.          11000
  100 L1 AGlen Lyn     A101728.1252. 110.1-50. 155.       37.  18.         11000
  101 L  AWythe        A 99229.7                          22.  15.         11000
  102 L  ASmythe       A 99132.4                          5.   3.          11000
  103 L1 AClaytor      A100124.540.  40.  -15. 40.        23.  16.         11000
  104 L1 AHancock      A 97121.7     5.643-8.  23.        38.  25.         11000
  105 L1 ARoanoke      A 96620.6     -8.  -8.  23.        31.  26.  20.    11000
  106 L  ACloverdl     A 96220.4                          43.  16.         11000
  107 L1 AReusens      A 95217.6     5.694-200.200.       50.  12.  6.     11000
  108 L  ABlaine       A 96719.4                          2.   1.          11000
  109 L  AFranklin     A 96719.                           8.   3.          11000
  110 L1 AFieldale     A 97318.1     4.854-8.  23.        39.  30.  6.     11000
  111 L1 ADanRiver     A 98019.836.  -1.84-100.1000.                       11000
  112 L1 ADanville     A 97515.      41.51-100.1000.      68.  13.         11000
  113 L1 ADeer Crk     A 99314.      6.323-100.200.       6.   0.          11000
  114 L  AWMedford     A 96014.7                          8.   3.          11000
  115 L  AMedford      A 96014.7                          22.  7.          11000
  116 L1 AKygerCrk     A100527.2     51.32-10001000.      184. 0.          11000
  117 L  ACorey        A 97411.                           20.  8.          11000
  118 L  AWHuntngd     A 94921.9                          33.  15.         11000
99999
DLIN
(De )d O d(Pa )NcEP ( R% )( X% )(Mvar)(Tap)(Tmn)(Tmx)(Phs)(Bc  )(Cn)(Ce)Ns(Cq)(1)(2)(3)(4)(5)(6)(7)(8)(9)(10
    1         2 1   3.03  9.99  2.54                                          
    1         3 1   1.29  4.24  1.082                                         
    2        12 1   1.87  6.16  1.572                                         
    3         5 1   2.41  10.8  2.84                                          
    3        12 1   4.84  16.   4.06                                          
    4         5 1   .176  .798  .21                                           
    4        11 1   2.09  6.88  1.748                                         
    5         6 1   1.19  5.4   1.426                                         
    5        11 1   2.03  6.82  1.738                                         
    6         7 1   .459  2.08  .55                                           
    7        12 1   .862  3.4   .874                                          
    8         9 1   .244  3.05  116.2                                         
    8        30 1   .431  5.04  51.4                                          
    8         5 1         2.67        .985                                    
    9        10 1   .258  3.22  123.                                          
   11        12 1   .595  1.96  .502                                          
   11        13 1   2.225 7.31  1.876                                         
   12        14 1   2.15  7.07  1.816                                         
   12        16 1   2.12  8.34  2.14                                          
   12       117 1   3.29  14.   3.58                                          
   13        15 1   7.44  24.44 6.268                                         
   14        15 1   5.95  19.5  5.02                                          
   15        17 1   1.32  4.37  4.44                                          
   15        19 1   1.2   3.94  1.01                                          
   15        33 1   3.8   12.44 3.194                                         
   16        17 1   4.54  18.01 4.66                                          
   17        18 1   1.23  5.05  1.298                                         
   17        31 1   4.74  15.63 3.99                                          
   17       113 1   .913  3.01  .768                                          
   18        19 1   1.119 4.93  1.142                                         
   19        20 1   2.52  11.7  2.98                                          
   19        34 1   7.52  24.7  6.32                                          
   20        21 1   1.83  8.49  2.16                                          
   21        22 1   2.09  9.7   2.46                                          
   22        23 1   3.42  15.9  4.04                                          
   23        24 1   1.35  4.92  4.98                                          
   23        25 1   1.56  8.    8.64                                          
   23        32 1   3.17  11.53 11.73                                         
   24        70 1   .221  41.15 10.198                                        
   24        72 1   4.88  19.6  4.88                                          
   25        27 1   3.18  16.3  17.64                                         
   26        30 1   .799  8.6   90.8                                          
   26        25 1         3.82        .96                                     
   27        28 1   1.913 8.55  2.16                                          
   27        32 1   2.29  7.55  1.926                                         
   27       115 1   1.64  7.41  1.972                                         
   28        29 1   2.37  9.43  2.38                                          
   29        31 1   1.08  3.31  .83                                           
   30        38 1   .464  5.4   42.2                                          
   30        17 1         3.88        .96                                     
   31        32 1   2.98  9.85  2.51                                          
   32       113 1   6.15  20.3  5.18                                          
   32       114 1   1.35  6.12  1.628                                         
   33        37 1   4.15  14.2  3.66                                          
   34        36 1   .871  2.68  .568                                          
   34        37 1   .256  .94   .984                                          
   34        43 1   4.13  16.81 4.226                                         
   35        36 1   .224  1.02  .268                                          
   35        37 1   1.1   4.97  1.318                                         
   37        39 1   3.21  10.6  2.7                                           
   37        40 1   5.93  16.8  4.2                                           
   38        65 1   .901  9.86  104.6                                         
   38        37 1         3.75        .935                                    
   39        40 1   1.84  6.05  1.552                                         
   40        41 1   1.45  4.87  1.222                                         
   40        42 1   5.55  18.3  4.66                                          
   41        42 1   4.1   13.5  3.44                                          
   42        49 1   7.15  32.3  8.6                                           
   42        49 1   7.15  32.3  8.6                                           
   43        44 1   6.08  24.54 6.068                                         
   44        45 1   2.24  9.01  2.24                                          
   45        46 1   4.    13.56 3.32                                          
   45        49 1   6.84  18.6  4.44                                          
   46        47 1   3.8   12.7  3.16                                          
   46        48 1   6.01  18.9  4.72                                          
   47        49 1   1.91  6.25  1.604                                         
   47        69 1   8.44  27.78 7.092                                         
   48        49 1   1.79  5.05  1.258                                         
   49        50 1   2.67  7.52  1.874                                         
   49        51 1   4.86  13.7  3.42                                          
   49        54 1   7.3   28.9  7.38                                          
   49        54 1   8.69  29.1  7.3                                           
   49        66 1   1.8   9.19  2.48                                          
   49        66 1   1.8   9.19  2.48                                          
   49        69 1   9.85  32.4  8.28                                          
   50        57 1   4.74  13.4  3.32                                          
   51        52 1   2.03  5.88  1.396                                         
   51        58 1   2.55  7.19  1.788                                         
   52        53 1   4.05  16.35 4.058                                         
   53        54 1   2.63  12.2  3.1                                           
   54        55 1   1.69  7.07  2.02                                          
   54        56 1   .275  .955  .732                                          
   54        59 1   5.03  22.93 5.98                                          
   55        56 1   .488  1.51  .374                                          
   55        59 1   4.739 21.58 5.646                                         
   56        57 1   3.43  9.66  2.42                                          
   56        58 1   3.43  9.66  2.42                                          
   56        59 1   8.25  25.1  5.69                                          
   56        59 1   8.03  23.9  5.36                                          
   59        60 1   3.17  14.5  3.76                                          
   59        61 1   3.28  15.   3.88                                          
   60        61 1   .264  1.35  1.456                                         
   60        62 1   1.23  5.61  1.468                                         
   61        62 1   .824  3.76  .98                                           
   62        66 1   4.82  21.8  5.78                                          
   62        67 1   2.58  11.7  3.1                                           
   63        64 1   .172  2.    21.6                                          
   63        59 1         3.86        .96                                     
   64        65 1   .269  3.02  38.                                           
   64        61 1         2.68        .985                                    
   65        68 1   .138  1.6   63.8                                          
   65        66 1         3.7         .935                                    
   66        67 1   2.24  10.15 2.682                                         
   68        81 1   .175  2.02  80.8                                          
   68       116 1   .034  .405  16.4                                          
   68        69 1         3.7         .935                                    
   69        70 1   3.    12.7  12.2                                          
   69        75 1   4.05  12.2  12.4                                          
   69        77 1   3.09  10.1  10.38                                         
   70        71 1   .882  3.55  .878                                          
   70        74 1   4.01  13.23 3.368                                         
   70        75 1   4.28  14.1  3.6                                           
   71        72 1   4.46  18.   4.444                                         
   71        73 1   .866  4.54  1.178                                         
   74        75 1   1.23  4.06  1.034                                         
   75        77 1   6.01  19.99 4.978                                         
   75       118 1   1.45  4.81  1.198                                         
   76        77 1   4.44  14.8  3.68                                          
   76       118 1   1.64  5.44  1.356                                         
   77        78 1   .376  1.24  1.264                                         
   77        80 1   1.7   4.85  4.72                                          
   77        80 1   2.94  10.5  2.28                                          
   77        82 1   2.98  8.53  8.174                                         
   78        79 1   .546  2.44  .648                                          
   79        80 1   1.56  7.04  1.87                                          
   80        96 1   3.56  18.2  4.94                                          
   80        97 1   1.83  9.34  2.54                                          
   80        98 1   2.38  10.8  2.86                                          
   80        99 1   4.54  20.6  5.46                                          
   81        80 1         3.7         .935                                    
   82        83 1   1.12  3.665 3.796                                         
   82        96 1   1.62  5.3   5.44                                          
   83        84 1   6.25  13.2  2.58                                          
   83        85 1   4.3   14.8  3.48                                          
   84        85 1   3.02  6.41  1.234                                         
   85        86 1   3.5   12.3  2.76                                          
   85        88 1   2.    10.2  2.76                                          
   85        89 1   2.39  17.3  4.7                                           
   86        87 1   2.828 20.74 4.45                                          
   88        89 1   1.39  7.12  1.934                                         
   89        90 1   5.18  18.8  5.28                                          
   89        90 1   2.38  9.97  10.6                                          
   89        92 1   .99   5.05  5.48                                          
   89        92 1   3.93  15.81 4.14                                          
   90        91 1   2.54  8.36  2.14                                          
   91        92 1   3.87  12.72 3.268                                         
   92        93 1   2.58  8.48  2.18                                          
   92        94 1   4.81  15.8  4.06                                          
   92       100 1   6.48  29.5  4.72                                          
   92       102 1   1.23  5.59  1.464                                         
   93        94 1   2.23  7.32  1.876                                         
   94        95 1   1.32  4.34  1.11                                          
   94        96 1   2.69  8.69  2.3                                           
   94       100 1   1.78  5.8   6.04                                          
   95        96 1   1.71  5.47  1.474                                         
   96        97 1   1.73  8.85  2.4                                           
   98       100 1   3.97  17.9  4.76                                          
   99       100 1   1.8   8.13  2.16                                          
  100       101 1   2.77  12.62 3.28                                          
  100       103 1   1.6   5.25  5.36                                          
  100       104 1   4.51  20.4  5.41                                          
  100       106 1   6.05  22.9  6.2                                           
  101       102 1   2.46  11.2  2.94                                          
  103       104 1   4.66  15.84 4.07                                          
  103       105 1   5.35  16.25 4.08                                          
  103       110 1   3.906 18.13 4.61                                          
  104       105 1   .994  3.78  .986                                          
  105       106 1   1.4   5.47  1.434                                         
  105       107 1   5.3   18.3  4.72                                          
  105       108 1   2.61  7.03  1.844                                         
  106       107 1   5.3   18.3  4.72                                          
  108       109 1   1.05  2.88  .76                                           
  109       110 1   2.78  7.62  2.02                                          
  110       111 1   2.2   7.55  2.                                            
  110       112 1   2.47  6.4   6.2                                           
  114       115 1   .23   1.04  .276                                          
99999
DBSH
(NFr) O (NTo) Nc C (Vmn (Vmx Bctrl (Qini) T A (Extr
    9            D 0980 1020     9  -10.0   C         
(G  O E (U) UOp (Sht ) M
10        5   1   -10. S
FBAN
(NFr) O (NTo) Nc C (Vmn (Vmx Bctrl (Qini) T A (Extr
  63            D 0980 1020     63   10.0   C         
(G  O E (U) UOp (Sht ) M
10        5   1    10. S
FBAN
(NFr) O (NTo) Nc C (Vmn (Vmx Bctrl (Qini) T A (Extr
  64            D 0980 1020     64   10.0   C         
(G  O E (U) UOp (Sht ) M
10        5   1    10. S
FBAN
99999
FIM 
